 This run of the CFX 2023 R1.04 Solver started at 20:50:05 on 12 Dec
 2023 by user alebostr on HB-105-21 (intel_xeon64.sse2_winnt) using the
 command:
 
  "C:\Program Files\ANSYS Inc\v231\CFX\bin\perllib\cfx5solve.pl" -batch
    -ccl runInput.ccl -fullname CFX_007
 
 2023 R1.04
 
  Point Releases and Patches installed:
  ANSYS, Inc. License Manager 2023 R1
  Discovery 2023 R1
  SpaceClaim 2023 R1
  Ansys Sherlock 2023 R1
  Autodyn 2023 R1
  LS-DYNA 2023 R1
  CFD-Post only 2023 R1
  CFX (includes CFD-Post) 2023 R1
  Chemkin 2023 R1
  EnSight 2023 R1
  FENSAP-ICE 2023 R1
  Fluent (includes CFD-Post) 2023 R1
  Polyflow (includes CFD-Post) 2023 R1
  Forte (includes EnSight) 2023 R1
  TurboGrid 2023 R1
  ICEM CFD 2023 R1
  Motion 2023 R1
  Aqwa 2023 R1
  Speos 2023 R1
  Speos HPC 2023 R1
  Speos for NX 2023 R1
  optiSLang 2023 R1
  Additive 2023 R1
  Customization Files for User Programmable Features 2023 R1
  Mechanical Products 2023 R1
  Material Calibration App 2023 R1
  Icepak (includes CFD-Post) 2023 R1
  Remote Solve Manager Standalone Services 2023 R1
  Ansys Sound - SAS 2023 R1
  Viewer 2023 R1
  ACIS Geometry Interface 2023 R1
  AutoCAD Geometry Interface 2023 R1
  Catia, Version 4 Geometry Interface 2023 R1
  Catia, Version 5 Geometry Interface 2023 R1
  Catia, Version 6 Geometry Interface 2023 R1
  Creo Elements/Direct Modeling Geometry Interface 2023 R1
  Creo Parametric Geometry Interface 2023 R1
  Inventor Geometry Interface 2023 R1
  JTOpen Geometry Interface 2023 R1
  NX Geometry Interface 2023 R1
  Parasolid Geometry Interface  2023 R1
  Solid Edge Geometry Interface 2023 R1
  SOLIDWORKS Geometry Interface 2023 R1
  ANSYS 2023R1 Service Pack 1 2023 R1.04
  Discovery 2023 R1.04
  FENSAP-ICE 2023 R1.04
  Fluent (includes CFD-Post) 2023 R1.04
  Forte (includes EnSight) 2023 R1.04
  TurboGrid 2023 R1.04
  Motion 2023 R1.04
  optiSLang 2023 R1.04
  ANSYS 2023R1 Service Pack 2 2023 R1.04
  Ansys Sherlock 2023 R1.04
  SpaceClaim 2023 R1.04
  Icepak (includes CFD-Post) 2023 R1.04
  ANSYS 2023R1 Service Pack 4 2023 R1.04
 
 Setting up CFX Solver run ...
 
 
 +--------------------------------------------------------------------+
 |                                                                    |
 |                    CFX Command Language for Run                    |
 |                                                                    |
 +--------------------------------------------------------------------+
 
 LIBRARY:
   CEL:
     EXPRESSIONS:
       massflowExp = 70*massFlow()@IGV Inlet
     END
   END
   MATERIAL: Air Ideal Gas
     Material Description = Air Ideal Gas (constant Cp)
     Material Group = Air Data, Calorically Perfect Ideal Gases
     Option = Pure Substance
     Thermodynamic State = Gas
     PROPERTIES:
       Option = General Material
       EQUATION OF STATE:
         Molar Mass = 28.96 [kg kmol^-1]
         Option = Ideal Gas
       END
       SPECIFIC HEAT CAPACITY:
         Option = Value
         Specific Heat Capacity = 1.0044E+03 [J kg^-1 K^-1]
         Specific Heat Type = Constant Pressure
       END
       REFERENCE STATE:
         Option = Specified Point
         Reference Pressure = 1 [atm]
         Reference Specific Enthalpy = 0. [J/kg]
         Reference Specific Entropy = 0. [J/kg/K]
         Reference Temperature = 25 [C]
       END
       DYNAMIC VISCOSITY:
         Dynamic Viscosity = 1.831E-05 [kg m^-1 s^-1]
         Option = Value
       END
       THERMAL CONDUCTIVITY:
         Option = Value
         Thermal Conductivity = 2.61E-2 [W m^-1 K^-1]
       END
       ABSORPTION COEFFICIENT:
         Absorption Coefficient = 0.01 [m^-1]
         Option = Value
       END
       SCATTERING COEFFICIENT:
         Option = Value
         Scattering Coefficient = 0.0 [m^-1]
       END
       REFRACTIVE INDEX:
         Option = Value
         Refractive Index = 1.0 [m m^-1]
       END
     END
   END
 END
 FLOW: Flow Analysis 1
   SOLUTION UNITS:
     Angle Units = [rad]
     Length Units = [m]
     Mass Units = [kg]
     Solid Angle Units = [sr]
     Temperature Units = [K]
     Time Units = [s]
   END
   ANALYSIS TYPE:
     Option = Steady State
     EXTERNAL SOLVER COUPLING:
       Option = None
     END
   END
   DOMAIN: IGV
     Coord Frame = Coord 0
     Domain Type = Fluid
     Location = Passage 2
     BOUNDARY: IGV Blade
       Boundary Type = WALL
       Location = BLADE 2
       BOUNDARY CONDITIONS:
         HEAT TRANSFER:
           Option = Adiabatic
         END
         MASS AND MOMENTUM:
           Option = No Slip Wall
         END
         WALL ROUGHNESS:
           Option = Smooth Wall
         END
       END
     END
     BOUNDARY: IGV Hub
       Boundary Type = WALL
       Location = HUB 2
       BOUNDARY CONDITIONS:
         HEAT TRANSFER:
           Option = Adiabatic
         END
         MASS AND MOMENTUM:
           Option = No Slip Wall
         END
         WALL ROUGHNESS:
           Option = Smooth Wall
         END
       END
     END
     BOUNDARY: IGV Inlet
       Boundary Type = INLET
       Location = INFLOW 2
       BOUNDARY CONDITIONS:
         FLOW DIRECTION:
           Option = Normal to Boundary Condition
         END
         FLOW REGIME:
           Option = Subsonic
         END
         HEAT TRANSFER:
           Option = Total Temperature
           Total Temperature = 517.4 [K]
         END
         MASS AND MOMENTUM:
           Option = Total Pressure
           Relative Pressure = 386.451 [kPa]
         END
         TURBULENCE:
           Option = Medium Intensity and Eddy Viscosity Ratio
         END
       END
     END
     BOUNDARY: IGV Shroud
       Boundary Type = WALL
       Location = SHROUD 2
       BOUNDARY CONDITIONS:
         HEAT TRANSFER:
           Option = Adiabatic
         END
         MASS AND MOMENTUM:
           Option = No Slip Wall
         END
         WALL ROUGHNESS:
           Option = Smooth Wall
         END
       END
     END
     BOUNDARY: IGV to IGV Periodic 1 Side 1
       Boundary Type = INTERFACE
       Location = PER1 2
       BOUNDARY CONDITIONS:
         HEAT TRANSFER:
           Option = Conservative Interface Flux
         END
         MASS AND MOMENTUM:
           Option = Conservative Interface Flux
         END
         TURBULENCE:
           Option = Conservative Interface Flux
         END
       END
     END
     BOUNDARY: IGV to IGV Periodic 1 Side 2
       Boundary Type = INTERFACE
       Location = PER2 2
       BOUNDARY CONDITIONS:
         HEAT TRANSFER:
           Option = Conservative Interface Flux
         END
         MASS AND MOMENTUM:
           Option = Conservative Interface Flux
         END
         TURBULENCE:
           Option = Conservative Interface Flux
         END
       END
     END
     BOUNDARY: R1 to IGV Side 2
       Boundary Type = INTERFACE
       Location = OUTFLOW 2
       BOUNDARY CONDITIONS:
         HEAT TRANSFER:
           Option = Conservative Interface Flux
         END
         MASS AND MOMENTUM:
           Option = Conservative Interface Flux
         END
         TURBULENCE:
           Option = Conservative Interface Flux
         END
       END
     END
     DOMAIN MODELS:
       BUOYANCY MODEL:
         Option = Non Buoyant
       END
       DOMAIN MOTION:
         Option = Stationary
       END
       MESH DEFORMATION:
         Option = None
       END
       REFERENCE PRESSURE:
         Reference Pressure = 0 [atm]
       END
     END
     FLUID DEFINITION: Air Ideal Gas
       Material = Air Ideal Gas
       Option = Material Library
       MORPHOLOGY:
         Option = Continuous Fluid
       END
     END
     FLUID MODELS:
       COMBUSTION MODEL:
         Option = None
       END
       HEAT TRANSFER MODEL:
         Include Viscous Work Term = On
         Option = Total Energy
       END
       THERMAL RADIATION MODEL:
         Option = None
       END
       TURBULENCE MODEL:
         Option = k epsilon
       END
       TURBULENT WALL FUNCTIONS:
         High Speed Model = Off
         Option = Scalable
       END
     END
   END
   DOMAIN: R1
     Coord Frame = Coord 0
     Domain Type = Fluid
     Location = Passage Main 3
     BOUNDARY: R1 Blade
       Boundary Type = WALL
       Frame Type = Rotating
       Location = BLADE 3
       BOUNDARY CONDITIONS:
         HEAT TRANSFER:
           Option = Adiabatic
         END
         MASS AND MOMENTUM:
           Option = No Slip Wall
         END
         WALL ROUGHNESS:
           Option = Smooth Wall
         END
       END
     END
     BOUNDARY: R1 Hub
       Boundary Type = WALL
       Coord Frame = Coord 0
       Frame Type = Rotating
       Location = HUB 3
       BOUNDARY CONDITIONS:
         HEAT TRANSFER:
           Option = Adiabatic
         END
         MASS AND MOMENTUM:
           Option = No Slip Wall
         END
         WALL ROUGHNESS:
           Option = Smooth Wall
         END
       END
     END
     BOUNDARY: R1 Shroud
       Boundary Type = WALL
       Frame Type = Rotating
       Location = SHROUD 3
       BOUNDARY CONDITIONS:
         HEAT TRANSFER:
           Option = Adiabatic
         END
         MASS AND MOMENTUM:
           Option = No Slip Wall
           WALL VELOCITY:
             Option = Counter Rotating Wall
           END
         END
         WALL ROUGHNESS:
           Option = Smooth Wall
         END
       END
     END
     BOUNDARY: R1 to IGV Side 1
       Boundary Type = INTERFACE
       Location = INFLOW 3
       BOUNDARY CONDITIONS:
         HEAT TRANSFER:
           Option = Conservative Interface Flux
         END
         MASS AND MOMENTUM:
           Option = Conservative Interface Flux
         END
         TURBULENCE:
           Option = Conservative Interface Flux
         END
       END
     END
     BOUNDARY: R1 to R1 Periodic 1 Side 1
       Boundary Type = INTERFACE
       Location = PER1 3
       BOUNDARY CONDITIONS:
         HEAT TRANSFER:
           Option = Conservative Interface Flux
         END
         MASS AND MOMENTUM:
           Option = Conservative Interface Flux
         END
         TURBULENCE:
           Option = Conservative Interface Flux
         END
       END
     END
     BOUNDARY: R1 to R1 Periodic 1 Side 2
       Boundary Type = INTERFACE
       Location = PER2 3
       BOUNDARY CONDITIONS:
         HEAT TRANSFER:
           Option = Conservative Interface Flux
         END
         MASS AND MOMENTUM:
           Option = Conservative Interface Flux
         END
         TURBULENCE:
           Option = Conservative Interface Flux
         END
       END
     END
     BOUNDARY: S1 to R1 Side 2
       Boundary Type = INTERFACE
       Location = OUTFLOW 3
       BOUNDARY CONDITIONS:
         HEAT TRANSFER:
           Option = Conservative Interface Flux
         END
         MASS AND MOMENTUM:
           Option = Conservative Interface Flux
         END
         TURBULENCE:
           Option = Conservative Interface Flux
         END
       END
     END
     DOMAIN MODELS:
       BUOYANCY MODEL:
         Option = Non Buoyant
       END
       DOMAIN MOTION:
         Alternate Rotation Model = true
         Angular Velocity = -16170.4 [rev min^-1]
         Option = Rotating
         AXIS DEFINITION:
           Option = Coordinate Axis
           Rotation Axis = Coord 0.1
         END
       END
       MESH DEFORMATION:
         Option = None
       END
       REFERENCE PRESSURE:
         Reference Pressure = 0 [atm]
       END
     END
     FLUID DEFINITION: Air Ideal Gas
       Material = Air Ideal Gas
       Option = Material Library
       MORPHOLOGY:
         Option = Continuous Fluid
       END
     END
     FLUID MODELS:
       COMBUSTION MODEL:
         Option = None
       END
       HEAT TRANSFER MODEL:
         Include Viscous Work Term = On
         Option = Total Energy
       END
       THERMAL RADIATION MODEL:
         Option = None
       END
       TURBULENCE MODEL:
         Option = k epsilon
       END
       TURBULENT WALL FUNCTIONS:
         High Speed Model = Off
         Option = Scalable
       END
     END
   END
   DOMAIN: S1
     Coord Frame = Coord 0
     Domain Type = Fluid
     Location = Passage Main
     BOUNDARY: S1 Blade
       Boundary Type = WALL
       Location = BLADE
       BOUNDARY CONDITIONS:
         HEAT TRANSFER:
           Option = Adiabatic
         END
         MASS AND MOMENTUM:
           Option = No Slip Wall
         END
         WALL ROUGHNESS:
           Option = Smooth Wall
         END
       END
     END
     BOUNDARY: S1 Hub
       Boundary Type = WALL
       Location = HUB
       BOUNDARY CONDITIONS:
         HEAT TRANSFER:
           Option = Adiabatic
         END
         MASS AND MOMENTUM:
           Option = No Slip Wall
         END
         WALL ROUGHNESS:
           Option = Smooth Wall
         END
       END
     END
     BOUNDARY: S1 Outlet
       Boundary Type = OUTLET
       Location = OUTFLOW
       BOUNDARY CONDITIONS:
         FLOW REGIME:
           Option = Subsonic
         END
         MASS AND MOMENTUM:
           Option = Average Static Pressure
           Pressure Profile Blend = 0.05
           Relative Pressure = 5.6 [bar]
         END
         PRESSURE AVERAGING:
           Option = Average Over Whole Outlet
         END
       END
     END
     BOUNDARY: S1 Shroud
       Boundary Type = WALL
       Location = SHROUD
       BOUNDARY CONDITIONS:
         HEAT TRANSFER:
           Option = Adiabatic
         END
         MASS AND MOMENTUM:
           Option = No Slip Wall
         END
         WALL ROUGHNESS:
           Option = Smooth Wall
         END
       END
     END
     BOUNDARY: S1 to R1 Side 1
       Boundary Type = INTERFACE
       Location = INFLOW
       BOUNDARY CONDITIONS:
         HEAT TRANSFER:
           Option = Conservative Interface Flux
         END
         MASS AND MOMENTUM:
           Option = Conservative Interface Flux
         END
         TURBULENCE:
           Option = Conservative Interface Flux
         END
       END
     END
     BOUNDARY: S1 to S1 Periodic 1 Side 1
       Boundary Type = INTERFACE
       Location = PER1
       BOUNDARY CONDITIONS:
         HEAT TRANSFER:
           Option = Conservative Interface Flux
         END
         MASS AND MOMENTUM:
           Option = Conservative Interface Flux
         END
         TURBULENCE:
           Option = Conservative Interface Flux
         END
       END
     END
     BOUNDARY: S1 to S1 Periodic 1 Side 2
       Boundary Type = INTERFACE
       Location = PER2
       BOUNDARY CONDITIONS:
         HEAT TRANSFER:
           Option = Conservative Interface Flux
         END
         MASS AND MOMENTUM:
           Option = Conservative Interface Flux
         END
         TURBULENCE:
           Option = Conservative Interface Flux
         END
       END
     END
     DOMAIN MODELS:
       BUOYANCY MODEL:
         Option = Non Buoyant
       END
       DOMAIN MOTION:
         Option = Stationary
       END
       MESH DEFORMATION:
         Option = None
       END
       REFERENCE PRESSURE:
         Reference Pressure = 0 [atm]
       END
     END
     FLUID DEFINITION: Air Ideal Gas
       Material = Air Ideal Gas
       Option = Material Library
       MORPHOLOGY:
         Option = Continuous Fluid
       END
     END
     FLUID MODELS:
       COMBUSTION MODEL:
         Option = None
       END
       HEAT TRANSFER MODEL:
         Include Viscous Work Term = On
         Option = Total Energy
       END
       THERMAL RADIATION MODEL:
         Option = None
       END
       TURBULENCE MODEL:
         Option = k epsilon
       END
       TURBULENT WALL FUNCTIONS:
         High Speed Model = Off
         Option = Scalable
       END
     END
   END
   DOMAIN INTERFACE: IGV to IGV Periodic 1
     Boundary List1 = IGV to IGV Periodic 1 Side 1
     Boundary List2 = IGV to IGV Periodic 1 Side 2
     Interface Type = Fluid Fluid
     INTERFACE MODELS:
       Option = Rotational Periodicity
       AXIS DEFINITION:
         Option = Coordinate Axis
         Rotation Axis = Coord 0.1
       END
     END
     MESH CONNECTION:
       Option = Automatic
     END
   END
   DOMAIN INTERFACE: R1 to IGV
     Boundary List1 = R1 to IGV Side 1
     Boundary List2 = R1 to IGV Side 2
     Interface Type = Fluid Fluid
     INTERFACE MODELS:
       Option = General Connection
       FRAME CHANGE:
         Option = Stage
         DOWNSTREAM VELOCITY CONSTRAINT:
           Frame Type = Rotating
           Option = Constant Total Pressure
         END
       END
       PITCH CHANGE:
         Option = Automatic
       END
     END
     MESH CONNECTION:
       Option = GGI
     END
   END
   DOMAIN INTERFACE: R1 to R1 Periodic 1
     Boundary List1 = R1 to R1 Periodic 1 Side 1
     Boundary List2 = R1 to R1 Periodic 1 Side 2
     Interface Type = Fluid Fluid
     INTERFACE MODELS:
       Option = Rotational Periodicity
       AXIS DEFINITION:
         Option = Coordinate Axis
         Rotation Axis = Coord 0.1
       END
     END
     MESH CONNECTION:
       Option = Automatic
     END
   END
   DOMAIN INTERFACE: S1 to R1
     Boundary List1 = S1 to R1 Side 1
     Boundary List2 = S1 to R1 Side 2
     Interface Type = Fluid Fluid
     INTERFACE MODELS:
       Option = General Connection
       FRAME CHANGE:
         Option = Stage
         DOWNSTREAM VELOCITY CONSTRAINT:
           Frame Type = Rotating
           Option = Constant Total Pressure
         END
       END
       PITCH CHANGE:
         Option = Automatic
       END
     END
     MESH CONNECTION:
       Option = GGI
     END
   END
   DOMAIN INTERFACE: S1 to S1 Periodic 1
     Boundary List1 = S1 to S1 Periodic 1 Side 1
     Boundary List2 = S1 to S1 Periodic 1 Side 2
     Interface Type = Fluid Fluid
     INTERFACE MODELS:
       Option = Rotational Periodicity
       AXIS DEFINITION:
         Option = Coordinate Axis
         Rotation Axis = Coord 0.1
       END
     END
     MESH CONNECTION:
       Option = Automatic
     END
   END
   OUTPUT CONTROL:
     MONITOR OBJECTS:
       EFFICIENCY OUTPUT:
         Inflow Boundary = IGV Inlet
         Option = Output To Solver Monitor
         Outflow Boundary = S1 Outlet
       END
       MONITOR BALANCES:
         Option = Full
       END
       MONITOR FORCES:
         Option = Full
       END
       MONITOR PARTICLES:
         Option = Full
       END
       MONITOR POINT: monitorMassflow
         Coord Frame = Coord 0
         Expression Value = massflowExp
         Option = Expression
       END
       MONITOR RESIDUALS:
         Option = Full
       END
       MONITOR TOTALS:
         Option = Full
       END
     END
     RESULTS:
       File Compression Level = Default
       Option = Standard
     END
   END
   SOLVER CONTROL:
     Turbulence Numerics = First Order
     ADVECTION SCHEME:
       Option = High Resolution
     END
     CONVERGENCE CONTROL:
       Length Scale Option = Conservative
       Maximum Number of Iterations = 100000
       Minimum Number of Iterations = 1
       Timescale Control = Auto Timescale
       Timescale Factor = 1.0
     END
     CONVERGENCE CRITERIA:
       Residual Target = 0.000001
       Residual Type = RMS
     END
     DYNAMIC MODEL CONTROL:
       Global Dynamic Model Control = On
     END
     INTERRUPT CONTROL:
       Option = Any Interrupt
       CONVERGENCE CONDITIONS:
         Option = Default Conditions
       END
     END
   END
 END
 COMMAND FILE:
   Version = 23.1
   Results Version = 23.1
 END
 SIMULATION CONTROL:
   EXECUTION CONTROL:
     EXECUTABLE SELECTION:
       Double Precision = No
       Large Problem = No
     END
     INTERPOLATOR STEP CONTROL:
       Runtime Priority = Standard
       MEMORY CONTROL:
         Memory Allocation Factor = 1.0
         Option = Model Based
       END
     END
     PARALLEL HOST LIBRARY:
       HOST DEFINITION: hb10521
         Remote Host Name = HB-105-21
         Host Architecture String = winnt-amd64
         Installation Root = C:\Program Files\ANSYS Inc\v%v\CFX
       END
     END
     PARTITIONER STEP CONTROL:
       Multidomain Option = Automatic
       Runtime Priority = Standard
       MEMORY CONTROL:
         Memory Allocation Factor = 1.0
         Option = Model Based
       END
       PARTITION SMOOTHING:
         Maximum Partition Smoothing Sweeps = 100
         Option = Smooth
       END
       PARTITIONING TYPE:
         MeTiS Type = k-way
         Option = MeTiS
         Partition Size Rule = Automatic
       END
     END
     RUN DEFINITION:
       Run Mode = Full
       Solver Input File = CFX.def
       Solver Results File = \
         C:/Users/alebostr/Desktop/DT3_files/cfd/cfdrun_pending/dp0_CFX_Soluti\
         on/CFX_007.res
     END
     SOLVER STEP CONTROL:
       Runtime Priority = Standard
       MEMORY CONTROL:
         Memory Allocation Factor = 1.0
         Option = Model Based
       END
       PARALLEL ENVIRONMENT:
         Number of Processes = 1
         Start Method = Serial
       END
     END
   END
 END
 
 
 +--------------------------------------------------------------------+
 |                                                                    |
 |                               Solver                               |
 |                                                                    |
 +--------------------------------------------------------------------+
 



 +--------------------------------------------------------------------+
 |                                                                    |
 |                       ANSYS(R) CFX(R) Solver                       |
 |                                                                    |
 | 2023 R1.04                                                         |
 | Build 23.1 2022-11-25T14:31:12.124816                              |
 | Fri Nov 25 16:32:25 GMTST 2022                                     |
 |                                                                    |
 |                        Executable Attributes                       |
 |                                                                    |
 |           single-64bit-int32-archfort-optimised-std-lcomp          |
 |                                                                    |
 | (C) 1996-2023 ANSYS, Inc.                                          |
 |                                                                    |
 | All rights reserved. Unauthorized use, distribution or duplication |
 | is prohibited. This product is subject to U.S. laws governing      |
 | export and re-export. For full Legal Notice, see documentation.    |
 +--------------------------------------------------------------------+




 +--------------------------------------------------------------------+
 |                  Job Information at Start of Run                   |
 +--------------------------------------------------------------------+

 Run mode:       serial run

 Host computer:  HB-105-21 (PID:19644)

 Job started:    Tue Dec 12 20:50:07 2023

 +--------------------------------------------------------------------+
 |                        License Information                         |
 +--------------------------------------------------------------------+
 
 License Cap:    ANSYS CFD Solver
 License ID:     HB-105-21_studat_chalmers_se-alebostr-13428-004565

 INFO: You are using an academic license.

 INFO: Your license enables 4-way parallel execution.
       For faster simulations, please start the application with the
       appropriate parallel options.


 +--------------------------------------------------------------------+
 |         Initial Memory Allocation  (Actual usage may vary)         |
 +--------------------------------------------------------------------+

           | Real       | Integer    | Character | Logical  | Double
 ----------+------------+------------+-----------+----------+----------
 Mwords    |      55.76 |      13.28 |      9.79 |     0.12 |     0.77
 Mbytes    |     212.72 |      50.64 |      9.33 |     0.46 |     5.91
 ----------+------------+------------+-----------+----------+----------


 +--------------------------------------------------------------------+
 |            Host Memory Information (Mbytes): Solver                |
 +--------------------------------------------------------------------+
 |          Host           |     System     |   Allocated    |   %    |
 +-------------------------+----------------+----------------+--------+
 | HB-105-21               |     32698.03   |       279.06   |   0.85 |
 +-------------------------+----------------+----------------+--------+


 +--------------------------------------------------------------------+
 |                     ****** Notice ******                           |
 | The Wall Heat Transfer Coefficient written to the results file for |
 | any turbulent phase with heat transfer is based on the turbulent   |
 | wall function coefficient. It is consistent with the Wall Heat Flux|
 | the wall temperature, and the Wall Adjacent Temperature            |
 | (near-wall temperature).  If you would like it to be based on a    |
 | user-specified bulk temperature instead, please set the expert     |
 | parameter "tbulk for htc = <value>".                               |
 +--------------------------------------------------------------------+

 +--------------------------------------------------------------------+
 |                      Topology Simplification                       |
 +--------------------------------------------------------------------+

 +--------------------------------------------------------------------+
 |                       ****** Warning ******                        |
 |                                                                    |
 | Topology simplification is activated with the following            |
 | restrictions:                                                      |
 |                                                                    |
 | - Mesh regions referenced only within User Fortran and NOT         |
 |   in the command file will cause the solver to stop.               |
 | - The solver will stop during any "Edit Run in Progress" step      |
 |   if new 2D regions are referenced.                                |
 +--------------------------------------------------------------------+

 +--------------------------------------------------------------------+
 |                          Mesh Statistics                           |
 +--------------------------------------------------------------------+
 | Domain Name          | Orthog. Angle | Exp. Factor  | Aspect Ratio |
 +----------------------+---------------+--------------+--------------+
 |                      | Minimum [deg] |   Maximum    |    Maximum   |
 +----------------------+---------------+--------------+--------------+
 | IGV                  |       33.2 ok |         3 OK |        44 OK |
 | R1                   |        3.6  ! |         9 ok |       146 ok |
 | S1                   |       63.8 OK |         4 OK |        33 OK |
 | Global               |        3.6  ! |         9 ok |       146 ok |
 +----------------------+---------------+--------------+--------------+
 |                      |  %!  %ok  %OK | %!  %ok  %OK | %!  %ok  %OK |
 +----------------------+---------------+--------------+--------------+
 | IGV                  |   0   10   90 |  0    0  100 |  0    0  100 |
 | R1                   |   5   16   79 |  0    3   97 |  0    2   98 |
 | S1                   |   0    0  100 |  0    0  100 |  0    0  100 |
 | Global               |   2   10   88 |  0    1   99 |  0    1   99 |
 +----------------------+---------------+--------------+--------------+

 Domain Name : IGV

     Total Number of Nodes                                =       61834

     Total Number of Elements                             =       55692
         Total Number of Hexahedrons                      =       55692

     Total Number of Faces                                =       12060

 Domain Name : R1

     Total Number of Nodes                                =       71847

     Total Number of Elements                             =       63856
         Total Number of Hexahedrons                      =       63856

     Total Number of Faces                                =       15572

 Domain Name : S1

     Total Number of Nodes                                =       50112

     Total Number of Elements                             =       44954
         Total Number of Hexahedrons                      =       44954

     Total Number of Faces                                =       10062
 
 Global Statistics :

     Global Number of Nodes                               =      183793

     Global Number of Elements                            =      164502
         Total Number of Hexahedrons                      =      164502

     Global Number of Faces                               =       37694

 Domain Interface Name : IGV to IGV Periodic 1

     Discretization type                                  =         1:1

 Domain Interface Name : R1 to IGV

     Discretization type                                  =         GGI
     Intersection type                                    =      Direct
     Non-overlap area fraction on side 1                  =    2.32E-07
     Non-overlap area fraction on side 2                  =    2.21E-07
     Pitch ratio ( area side 1 / area side 2 )            =       1.750
     Pitch angle for side 1 [degrees]                     =       9.000
     Pitch angle for side 2 [degrees]                     =       5.143
     Number of stage groups                               =          32

 Domain Interface Name : R1 to R1 Periodic 1

     Discretization type                                  =         1:1

 Domain Interface Name : S1 to R1

     Discretization type                                  =         GGI
     Intersection type                                    =      Direct
     Non-overlap area fraction on side 1                  =    2.37E-07
     Non-overlap area fraction on side 2                  =    3.28E-07
     Pitch ratio ( area side 1 / area side 2 )            =       0.800
     Pitch angle for side 1 [degrees]                     =       7.200
     Pitch angle for side 2 [degrees]                     =       9.000
     Number of stage groups                               =          26

 Domain Interface Name : S1 to S1 Periodic 1

     Discretization type                                  =         1:1

 +--------------------------------------------------------------------+
 |                  User Defined Monitor Information                  |
 +--------------------------------------------------------------------+

 Monitor Point: monitorMassflow

 +--------------------------------------------------------------------+
 |                     Average Scale Information                      |
 +--------------------------------------------------------------------+

 Domain Name : IGV
     Global Length                                         = 4.2583E-02
     Minimum Extent                                        = 2.9262E-02
     Maximum Extent                                        = 1.0612E-01
     Density                                               = 2.7290E+00
     Dynamic Viscosity                                     = 1.8310E-05
     Velocity                                              = 0.0000E+00
     Speed of Sound                                        = 4.5607E+02
     Mach Number                                           = 0.0000E+00
     Thermal Conductivity                                  = 2.6100E-02
     Specific Heat Capacity at Constant Pressure           = 1.0044E+03
     Specific Heat Capacity at Constant Volume             = 7.1730E+02
     Specific Heat Ratio                                   = 1.4003E+00
     Prandtl Number                                        = 7.0462E-01

 Domain Name : R1
     Global Length                                         = 4.5321E-02
     Minimum Extent                                        = 4.0768E-02
     Maximum Extent                                        = 8.7461E-02
     Density                                               = 3.1106E+00
     Dynamic Viscosity                                     = 1.8310E-05
     Velocity                                              = 5.0603E+02
     Advection Time                                        = 8.9562E-05
     Reynolds Number                                       = 3.8961E+06
     Speed of Sound                                        = 4.5607E+02
     Mach Number                                           = 1.1095E+00
     Thermal Conductivity                                  = 2.6100E-02
     Specific Heat Capacity at Constant Pressure           = 1.0044E+03
     Specific Heat Capacity at Constant Volume             = 7.1730E+02
     Specific Heat Ratio                                   = 1.4003E+00
     Prandtl Number                                        = 7.0462E-01

 Domain Name : S1
     Global Length                                         = 3.9620E-02
     Minimum Extent                                        = 4.3581E-02
     Maximum Extent                                        = 4.5385E-02
     Density                                               = 3.6121E+00
     Dynamic Viscosity                                     = 1.8310E-05
     Velocity                                              = 0.0000E+00
     Speed of Sound                                        = 4.5607E+02
     Mach Number                                           = 0.0000E+00
     Thermal Conductivity                                  = 2.6100E-02
     Specific Heat Capacity at Constant Pressure           = 1.0044E+03
     Specific Heat Capacity at Constant Volume             = 7.1730E+02
     Specific Heat Ratio                                   = 1.4003E+00
     Prandtl Number                                        = 7.0462E-01

 +--------------------------------------------------------------------+
 |                Checking for Isolated Fluid Regions                 |
 +--------------------------------------------------------------------+
 
 No isolated fluid regions were found.

 +--------------------------------------------------------------------+
 |              The Equations Solved in This Calculation              |
 +--------------------------------------------------------------------+
 
 Equations are given two labels: the individual name and a combined 
 name used for combining residuals together.  Residuals for multidomain 
 problems are combined provided the domains are connected together and 
 have the same domain type (solid or fluid/porous).  If there are 
 multiple groups of the same domain type, then the group residual is 
 identified by the name of the first domain in the connected group. 
 
 The individual and combined equation names are given below.

 Subsystem : Momentum and Mass

   U-Mom-IGV                                 --> U-Mom
   V-Mom-IGV                                 --> V-Mom
   W-Mom-IGV                                 --> W-Mom
   P-Mass-IGV                                --> P-Mass
   U-Mom-R1                                  --> U-Mom
   V-Mom-R1                                  --> V-Mom
   W-Mom-R1                                  --> W-Mom
   P-Mass-R1                                 --> P-Mass
   U-Mom-S1                                  --> U-Mom
   V-Mom-S1                                  --> V-Mom
   W-Mom-S1                                  --> W-Mom
   P-Mass-S1                                 --> P-Mass

 Subsystem : Heat Transfer

   H-Energy-IGV                              --> H-Energy
   H-Energy-R1                               --> H-Energy
   H-Energy-S1                               --> H-Energy

 Subsystem : TurbKE and Diss.K

   K-TurbKE-IGV                              --> K-TurbKE
   E-Diss.K-IGV                              --> E-Diss.K
   K-TurbKE-R1                               --> K-TurbKE
   E-Diss.K-R1                               --> E-Diss.K
   K-TurbKE-S1                               --> K-TurbKE
   E-Diss.K-S1                               --> E-Diss.K
                   
 CFD Solver started: Tue Dec 12 20:50:10 2023


 +--------------------------------------------------------------------+
 |                       Convergence History                          |
 +--------------------------------------------------------------------+

 ======================================================================
 |                        Timescale Information                       |
 ----------------------------------------------------------------------
 |       Equation       |         Type          |      Timescale      |
 +----------------------+-----------------------+---------------------+
 | U-Mom-IGV            | Auto Timescale        |     5.90542E-05     |
 | V-Mom-IGV            | Auto Timescale        |     5.90542E-05     |
 | W-Mom-IGV            | Auto Timescale        |     5.90542E-05     |
 | P-Mass-IGV           | Auto Timescale        |     5.90542E-05     |
 | U-Mom-R1             | Auto Timescale        |     5.90542E-05     |
 | V-Mom-R1             | Auto Timescale        |     5.90542E-05     |
 | W-Mom-R1             | Auto Timescale        |     5.90542E-05     |
 | P-Mass-R1            | Auto Timescale        |     5.90542E-05     |
 | U-Mom-S1             | Auto Timescale        |     5.90542E-05     |
 | V-Mom-S1             | Auto Timescale        |     5.90542E-05     |
 | W-Mom-S1             | Auto Timescale        |     5.90542E-05     |
 | P-Mass-S1            | Auto Timescale        |     5.90542E-05     |
 +----------------------+-----------------------+---------------------+
 | H-Energy-IGV         | Auto Timescale        |     5.90542E-05     |
 | H-Energy-R1          | Auto Timescale        |     5.90542E-05     |
 | H-Energy-S1          | Auto Timescale        |     5.90542E-05     |
 +----------------------+-----------------------+---------------------+
 | K-TurbKE-IGV         | Auto Timescale        |     5.90542E-05     |
 | E-Diss.K-IGV         | Auto Timescale        |     5.90542E-05     |
 | K-TurbKE-R1          | Auto Timescale        |     5.90542E-05     |
 | E-Diss.K-R1          | Auto Timescale        |     5.90542E-05     |
 | K-TurbKE-S1          | Auto Timescale        |     5.90542E-05     |
 | E-Diss.K-S1          | Auto Timescale        |     5.90542E-05     |
 +----------------------+-----------------------+---------------------+

 ======================================================================
 OUTER LOOP ITERATION =    1                    CPU SECONDS = 2.699E+00
 ----------------------------------------------------------------------
 |       Equation       | Rate | RMS Res | Max Res |  Linear Solution |
 +----------------------+------+---------+---------+------------------+
 | U-Mom                | 0.00 | 1.7E+01 | 2.9E+02 |       1.6E-01  ok|
 | V-Mom                | 0.00 | 2.1E+00 | 9.3E+00 |       4.2E-01  ok|
 | W-Mom                | 0.00 | 8.4E-01 | 7.6E+00 |       9.1E-01  ok|
 | P-Mass               | 0.00 | 2.4E-02 | 3.3E-01 |  9.4  2.6E-02  OK|
 +--------------------------------------------------------------------+
 |                     ****** Notice ******                           |
 |  A wall has been placed at portion(s) of an INLET                  |
 |  boundary condition (at  14.5% of the faces,   3.5% of the area)   |
 |  to prevent fluid from flowing out of the domain.                  |
 |  The boundary condition name is: IGV Inlet.                        |
 |  The fluid name is: Air Ideal Gas.                                 |
 |  If this situation persists, consider switching                    |
 |  to an Opening type boundary condition instead.                    |
 +--------------------------------------------------------------------+
 +----------------------+------+---------+---------+------------------+
 | H-Energy             | 0.00 | 4.4E-03 | 2.2E-01 |  5.7  2.3E-02  OK|
 +----------------------+------+---------+---------+------------------+
 | K-TurbKE             | 0.00 | 5.5E-02 | 6.9E-01 | 10.5  9.7E-03  OK|
 | E-Diss.K             | 0.00 | 1.1E-01 | 1.1E+00 |  7.3  8.0E-02  OK|
 +----------------------+------+---------+---------+------------------+

 ======================================================================
 OUTER LOOP ITERATION =    2                    CPU SECONDS = 7.093E+00
 ----------------------------------------------------------------------
 |       Equation       | Rate | RMS Res | Max Res |  Linear Solution |
 +----------------------+------+---------+---------+------------------+
 | U-Mom                | 0.01 | 8.3E-02 | 9.4E-01 |       6.1E-02  OK|
 | V-Mom                | 0.02 | 3.4E-02 | 3.3E-01 |       1.4E-01  ok|
 | W-Mom                | 0.02 | 1.4E-02 | 1.5E-01 |       5.2E-02  OK|
 | P-Mass               | 0.53 | 1.3E-02 | 3.4E-01 |  9.4  4.0E-02  OK|
 +--------------------------------------------------------------------+
 |                     ****** Notice ******                           |
 |  A wall has been placed at portion(s) of an INLET                  |
 |  boundary condition (at  14.7% of the faces,   2.8% of the area)   |
 |  to prevent fluid from flowing out of the domain.                  |
 |  The boundary condition name is: IGV Inlet.                        |
 |  The fluid name is: Air Ideal Gas.                                 |
 |  If this situation persists, consider switching                    |
 |  to an Opening type boundary condition instead.                    |
 +--------------------------------------------------------------------+
 +----------------------+------+---------+---------+------------------+
 | H-Energy             | 7.51 | 3.3E-02 | 6.7E-01 |  5.8  3.1E-02  OK|
 +----------------------+------+---------+---------+------------------+
 | K-TurbKE             | 0.35 | 1.9E-02 | 4.4E-01 |  5.8  8.2E-02  OK|
 | E-Diss.K             | 0.51 | 5.8E-02 | 1.0E+00 |  7.4  8.4E-03  OK|
 +----------------------+------+---------+---------+------------------+

 ======================================================================
 OUTER LOOP ITERATION =    3                    CPU SECONDS = 1.115E+01
 ----------------------------------------------------------------------
 |       Equation       | Rate | RMS Res | Max Res |  Linear Solution |
 +----------------------+------+---------+---------+------------------+
 | U-Mom                | 0.46 | 3.8E-02 | 1.1E+00 |       4.6E-02  OK|
 | V-Mom                | 0.19 | 6.5E-03 | 1.2E-01 |       5.6E-02  OK|
 | W-Mom                | 0.75 | 1.1E-02 | 2.1E-01 |       3.3E-02  OK|
 | P-Mass               | 0.33 | 4.2E-03 | 1.7E-01 |  9.4  4.6E-02  OK|
 +--------------------------------------------------------------------+
 |                     ****** Notice ******                           |
 |  A wall has been placed at portion(s) of an INLET                  |
 |  boundary condition (at  18.4% of the faces,   2.5% of the area)   |
 |  to prevent fluid from flowing out of the domain.                  |
 |  The boundary condition name is: IGV Inlet.                        |
 |  The fluid name is: Air Ideal Gas.                                 |
 |  If this situation persists, consider switching                    |
 |  to an Opening type boundary condition instead.                    |
 +--------------------------------------------------------------------+
 +----------------------+------+---------+---------+------------------+
 | H-Energy             | 0.97 | 3.2E-02 | 5.5E-01 |  5.9  3.2E-02  OK|
 +----------------------+------+---------+---------+------------------+
 | K-TurbKE             | 1.68 | 3.2E-02 | 3.9E-01 |  5.9  7.5E-03  OK|
 | E-Diss.K             | 0.56 | 3.3E-02 | 1.1E+00 |  7.4  8.0E-04  OK|
 +----------------------+------+---------+---------+------------------+

 ======================================================================
 OUTER LOOP ITERATION =    4                    CPU SECONDS = 1.515E+01
 ----------------------------------------------------------------------
 |       Equation       | Rate | RMS Res | Max Res |  Linear Solution |
 +----------------------+------+---------+---------+------------------+
 | U-Mom                | 0.82 | 3.2E-02 | 8.5E-01 |       4.0E-02  OK|
 | V-Mom                | 1.53 | 9.9E-03 | 1.9E-01 |       3.4E-02  OK|
 | W-Mom                | 1.13 | 1.2E-02 | 1.8E-01 |       3.0E-02  OK|
 | P-Mass               | 0.44 | 1.9E-03 | 7.7E-02 |  9.4  7.6E-02  OK|
 +--------------------------------------------------------------------+
 |                     ****** Notice ******                           |
 |  A wall has been placed at portion(s) of an INLET                  |
 |  boundary condition (at  18.4% of the faces,   2.7% of the area)   |
 |  to prevent fluid from flowing out of the domain.                  |
 |  The boundary condition name is: IGV Inlet.                        |
 |  The fluid name is: Air Ideal Gas.                                 |
 |  If this situation persists, consider switching                    |
 |  to an Opening type boundary condition instead.                    |
 +--------------------------------------------------------------------+
 +----------------------+------+---------+---------+------------------+
 | H-Energy             | 0.61 | 1.9E-02 | 3.8E-01 |  5.9  3.9E-02  OK|
 +----------------------+------+---------+---------+------------------+
 | K-TurbKE             | 0.77 | 2.5E-02 | 6.2E-01 |  5.9  9.5E-04  OK|
 | E-Diss.K             | 1.24 | 4.0E-02 | 1.6E+00 |  7.4  2.8E-05  OK|
 +----------------------+------+---------+---------+------------------+

 ======================================================================
 OUTER LOOP ITERATION =    5                    CPU SECONDS = 1.915E+01
 ----------------------------------------------------------------------
 |       Equation       | Rate | RMS Res | Max Res |  Linear Solution |
 +----------------------+------+---------+---------+------------------+
 | U-Mom                | 0.59 | 1.9E-02 | 1.4E+00 |       1.4E-02  OK|
 | V-Mom                | 0.72 | 7.1E-03 | 1.8E-01 |       1.4E-02  OK|
 | W-Mom                | 0.69 | 8.2E-03 | 1.3E-01 |       9.9E-03  OK|
 | P-Mass               | 0.66 | 1.2E-03 | 5.1E-02 | 13.6  5.6E-02  OK|
 +--------------------------------------------------------------------+
 |                     ****** Notice ******                           |
 |  A wall has been placed at portion(s) of an INLET                  |
 |  boundary condition (at  17.3% of the faces,   2.5% of the area)   |
 |  to prevent fluid from flowing out of the domain.                  |
 |  The boundary condition name is: IGV Inlet.                        |
 |  The fluid name is: Air Ideal Gas.                                 |
 |  If this situation persists, consider switching                    |
 |  to an Opening type boundary condition instead.                    |
 +--------------------------------------------------------------------+
 +----------------------+------+---------+---------+------------------+
 | H-Energy             | 0.70 | 1.4E-02 | 3.0E-01 |  5.9  4.3E-02  OK|
 +----------------------+------+---------+---------+------------------+
 | K-TurbKE             | 0.87 | 2.2E-02 | 5.3E-01 |  5.9  1.8E-03  OK|
 | E-Diss.K             | 1.00 | 4.0E-02 | 1.2E+00 |  7.4  6.2E-05  OK|
 +----------------------+------+---------+---------+------------------+

 ======================================================================
 |                        Timescale Information                       |
 ----------------------------------------------------------------------
 |       Equation       |         Type          |      Timescale      |
 +----------------------+-----------------------+---------------------+
 | U-Mom-IGV            | Auto Timescale        |     5.90542E-05     |
 | V-Mom-IGV            | Auto Timescale        |     5.90542E-05     |
 | W-Mom-IGV            | Auto Timescale        |     5.90542E-05     |
 | P-Mass-IGV           | Auto Timescale        |     5.90542E-05     |
 | U-Mom-R1             | Auto Timescale        |     5.90542E-05     |
 | V-Mom-R1             | Auto Timescale        |     5.90542E-05     |
 | W-Mom-R1             | Auto Timescale        |     5.90542E-05     |
 | P-Mass-R1            | Auto Timescale        |     5.90542E-05     |
 | U-Mom-S1             | Auto Timescale        |     5.90542E-05     |
 | V-Mom-S1             | Auto Timescale        |     5.90542E-05     |
 | W-Mom-S1             | Auto Timescale        |     5.90542E-05     |
 | P-Mass-S1            | Auto Timescale        |     5.90542E-05     |
 +----------------------+-----------------------+---------------------+
 | H-Energy-IGV         | Auto Timescale        |     5.90542E-05     |
 | H-Energy-R1          | Auto Timescale        |     5.90542E-05     |
 | H-Energy-S1          | Auto Timescale        |     5.90542E-05     |
 +----------------------+-----------------------+---------------------+
 | K-TurbKE-IGV         | Auto Timescale        |     5.90542E-05     |
 | E-Diss.K-IGV         | Auto Timescale        |     5.90542E-05     |
 | K-TurbKE-R1          | Auto Timescale        |     5.90542E-05     |
 | E-Diss.K-R1          | Auto Timescale        |     5.90542E-05     |
 | K-TurbKE-S1          | Auto Timescale        |     5.90542E-05     |
 | E-Diss.K-S1          | Auto Timescale        |     5.90542E-05     |
 +----------------------+-----------------------+---------------------+

 ======================================================================
 OUTER LOOP ITERATION =    6                    CPU SECONDS = 2.333E+01
 ----------------------------------------------------------------------
 |       Equation       | Rate | RMS Res | Max Res |  Linear Solution |
 +----------------------+------+---------+---------+------------------+
 | U-Mom                | 0.66 | 1.2E-02 | 5.5E-01 |       1.8E-02  OK|
 | V-Mom                | 0.83 | 5.9E-03 | 2.4E-01 |       1.7E-02  OK|
 | W-Mom                | 0.89 | 7.3E-03 | 1.0E-01 |       1.0E-02  OK|
 | P-Mass               | 1.04 | 1.3E-03 | 8.0E-02 | 13.6  6.6E-02  OK|
 +--------------------------------------------------------------------+
 |                     ****** Notice ******                           |
 |  A wall has been placed at portion(s) of an INLET                  |
 |  boundary condition (at  13.3% of the faces,   1.7% of the area)   |
 |  to prevent fluid from flowing out of the domain.                  |
 |  The boundary condition name is: IGV Inlet.                        |
 |  The fluid name is: Air Ideal Gas.                                 |
 |  If this situation persists, consider switching                    |
 |  to an Opening type boundary condition instead.                    |
 +--------------------------------------------------------------------+
 +----------------------+------+---------+---------+------------------+
 | H-Energy             | 1.03 | 1.4E-02 | 5.5E-01 |  5.9  5.8E-02  OK|
 +----------------------+------+---------+---------+------------------+
 | K-TurbKE             | 0.93 | 2.0E-02 | 3.8E-01 |  5.9  4.3E-03  OK|
 | E-Diss.K             | 1.14 | 4.6E-02 | 9.5E-01 |  7.4  4.1E-04  OK|
 +----------------------+------+---------+---------+------------------+

 ======================================================================
 OUTER LOOP ITERATION =    7                    CPU SECONDS = 2.750E+01
 ----------------------------------------------------------------------
 |       Equation       | Rate | RMS Res | Max Res |  Linear Solution |
 +----------------------+------+---------+---------+------------------+
 | U-Mom                | 0.59 | 7.2E-03 | 7.5E-01 |       2.5E-02  OK|
 | V-Mom                | 0.51 | 3.0E-03 | 5.8E-02 |       2.1E-02  OK|
 | W-Mom                | 0.74 | 5.4E-03 | 7.0E-02 |       1.4E-02  OK|
 | P-Mass               | 0.84 | 1.1E-03 | 4.7E-02 | 13.6  7.6E-02  OK|
 +--------------------------------------------------------------------+
 |                     ****** Notice ******                           |
 |  A wall has been placed at portion(s) of an INLET                  |
 |  boundary condition (at  10.9% of the faces,   1.2% of the area)   |
 |  to prevent fluid from flowing out of the domain.                  |
 |  The boundary condition name is: IGV Inlet.                        |
 |  The fluid name is: Air Ideal Gas.                                 |
 |  If this situation persists, consider switching                    |
 |  to an Opening type boundary condition instead.                    |
 +--------------------------------------------------------------------+
 +----------------------+------+---------+---------+------------------+
 | H-Energy             | 0.96 | 1.3E-02 | 4.0E-01 |  5.9  9.3E-02  OK|
 +----------------------+------+---------+---------+------------------+
 | K-TurbKE             | 0.82 | 1.7E-02 | 2.5E-01 |  5.9  6.1E-03  OK|
 | E-Diss.K             | 0.72 | 3.3E-02 | 9.5E-01 |  7.4  1.1E-03  OK|
 +----------------------+------+---------+---------+------------------+

 ======================================================================
 OUTER LOOP ITERATION =    8                    CPU SECONDS = 3.165E+01
 ----------------------------------------------------------------------
 |       Equation       | Rate | RMS Res | Max Res |  Linear Solution |
 +----------------------+------+---------+---------+------------------+
 | U-Mom                | 0.58 | 4.2E-03 | 9.6E-02 |       3.3E-02  OK|
 | V-Mom                | 0.52 | 1.6E-03 | 3.8E-02 |       3.1E-02  OK|
 | W-Mom                | 0.80 | 4.3E-03 | 9.2E-02 |       2.4E-02  OK|
 | P-Mass               | 0.93 | 9.9E-04 | 6.2E-02 | 13.6  1.0E-01  OK|
 +--------------------------------------------------------------------+
 |                     ****** Notice ******                           |
 |  A wall has been placed at portion(s) of an INLET                  |
 |  boundary condition (at  13.0% of the faces,   1.6% of the area)   |
 |  to prevent fluid from flowing out of the domain.                  |
 |  The boundary condition name is: IGV Inlet.                        |
 |  The fluid name is: Air Ideal Gas.                                 |
 |  If this situation persists, consider switching                    |
 |  to an Opening type boundary condition instead.                    |
 +--------------------------------------------------------------------+
 +----------------------+------+---------+---------+------------------+
 | H-Energy             | 0.77 | 1.0E-02 | 1.3E-01 | 10.7  3.5E-03  OK|
 +----------------------+------+---------+---------+------------------+
 | K-TurbKE             | 0.84 | 1.4E-02 | 4.2E-01 |  5.9  6.1E-03  OK|
 | E-Diss.K             | 0.71 | 2.4E-02 | 9.7E-01 |  7.4  8.2E-04  OK|
 +----------------------+------+---------+---------+------------------+

 ======================================================================
 OUTER LOOP ITERATION =    9                    CPU SECONDS = 3.585E+01
 ----------------------------------------------------------------------
 |       Equation       | Rate | RMS Res | Max Res |  Linear Solution |
 +----------------------+------+---------+---------+------------------+
 | U-Mom                | 0.78 | 3.3E-03 | 1.0E-01 |       4.6E-02  OK|
 | V-Mom                | 0.70 | 1.1E-03 | 4.2E-02 |       4.1E-02  OK|
 | W-Mom                | 1.03 | 4.5E-03 | 2.2E-01 |       3.4E-02  OK|
 | P-Mass               | 0.95 | 9.3E-04 | 7.7E-02 | 13.6  9.8E-02  OK|
 +--------------------------------------------------------------------+
 |                     ****** Notice ******                           |
 |  A wall has been placed at portion(s) of an INLET                  |
 |  boundary condition (at  13.2% of the faces,   1.7% of the area)   |
 |  to prevent fluid from flowing out of the domain.                  |
 |  The boundary condition name is: IGV Inlet.                        |
 |  The fluid name is: Air Ideal Gas.                                 |
 |  If this situation persists, consider switching                    |
 |  to an Opening type boundary condition instead.                    |
 +--------------------------------------------------------------------+
 +----------------------+------+---------+---------+------------------+
 | H-Energy             | 0.93 | 9.5E-03 | 2.5E-01 | 10.7  4.7E-03  OK|
 +----------------------+------+---------+---------+------------------+
 | K-TurbKE             | 0.99 | 1.4E-02 | 5.2E-01 |  5.8  3.0E-03  OK|
 | E-Diss.K             | 0.69 | 1.6E-02 | 8.2E-01 |  7.4  5.7E-04  OK|
 +----------------------+------+---------+---------+------------------+

 ======================================================================
 OUTER LOOP ITERATION =   10                    CPU SECONDS = 4.003E+01
 ----------------------------------------------------------------------
 |       Equation       | Rate | RMS Res | Max Res |  Linear Solution |
 +----------------------+------+---------+---------+------------------+
 | U-Mom                | 1.01 | 3.3E-03 | 1.1E-01 |       3.7E-02  OK|
 | V-Mom                | 0.86 | 9.5E-04 | 2.5E-02 |       4.3E-02  OK|
 | W-Mom                | 0.96 | 4.3E-03 | 1.6E-01 |       2.7E-02  OK|
 | P-Mass               | 1.09 | 1.0E-03 | 6.4E-02 | 13.6  6.5E-02  OK|
 +--------------------------------------------------------------------+
 |                     ****** Notice ******                           |
 |  A wall has been placed at portion(s) of an INLET                  |
 |  boundary condition (at  15.2% of the faces,   2.1% of the area)   |
 |  to prevent fluid from flowing out of the domain.                  |
 |  The boundary condition name is: IGV Inlet.                        |
 |  The fluid name is: Air Ideal Gas.                                 |
 |  If this situation persists, consider switching                    |
 |  to an Opening type boundary condition instead.                    |
 +--------------------------------------------------------------------+
 +----------------------+------+---------+---------+------------------+
 | H-Energy             | 0.99 | 9.5E-03 | 3.0E-01 | 10.7  6.2E-03  OK|
 +----------------------+------+---------+---------+------------------+
 | K-TurbKE             | 0.88 | 1.2E-02 | 4.3E-01 |  5.9  2.3E-03  OK|
 | E-Diss.K             | 0.94 | 1.5E-02 | 7.1E-01 |  7.4  2.8E-04  OK|
 +----------------------+------+---------+---------+------------------+

 ======================================================================
 |                        Timescale Information                       |
 ----------------------------------------------------------------------
 |       Equation       |         Type          |      Timescale      |
 +----------------------+-----------------------+---------------------+
 | U-Mom-IGV            | Auto Timescale        |     5.90542E-05     |
 | V-Mom-IGV            | Auto Timescale        |     5.90542E-05     |
 | W-Mom-IGV            | Auto Timescale        |     5.90542E-05     |
 | P-Mass-IGV           | Auto Timescale        |     5.90542E-05     |
 | U-Mom-R1             | Auto Timescale        |     5.90542E-05     |
 | V-Mom-R1             | Auto Timescale        |     5.90542E-05     |
 | W-Mom-R1             | Auto Timescale        |     5.90542E-05     |
 | P-Mass-R1            | Auto Timescale        |     5.90542E-05     |
 | U-Mom-S1             | Auto Timescale        |     5.90542E-05     |
 | V-Mom-S1             | Auto Timescale        |     5.90542E-05     |
 | W-Mom-S1             | Auto Timescale        |     5.90542E-05     |
 | P-Mass-S1            | Auto Timescale        |     5.90542E-05     |
 +----------------------+-----------------------+---------------------+
 | H-Energy-IGV         | Auto Timescale        |     5.90542E-05     |
 | H-Energy-R1          | Auto Timescale        |     5.90542E-05     |
 | H-Energy-S1          | Auto Timescale        |     5.90542E-05     |
 +----------------------+-----------------------+---------------------+
 | K-TurbKE-IGV         | Auto Timescale        |     5.90542E-05     |
 | E-Diss.K-IGV         | Auto Timescale        |     5.90542E-05     |
 | K-TurbKE-R1          | Auto Timescale        |     5.90542E-05     |
 | E-Diss.K-R1          | Auto Timescale        |     5.90542E-05     |
 | K-TurbKE-S1          | Auto Timescale        |     5.90542E-05     |
 | E-Diss.K-S1          | Auto Timescale        |     5.90542E-05     |
 +----------------------+-----------------------+---------------------+

 ======================================================================
 OUTER LOOP ITERATION =   11                    CPU SECONDS = 4.427E+01
 ----------------------------------------------------------------------
 |       Equation       | Rate | RMS Res | Max Res |  Linear Solution |
 +----------------------+------+---------+---------+------------------+
 | U-Mom                | 1.44 | 4.7E-03 | 2.9E-01 |       2.0E-02  OK|
 | V-Mom                | 1.06 | 1.0E-03 | 3.3E-02 |       3.0E-02  OK|
 | W-Mom                | 0.81 | 3.5E-03 | 1.2E-01 |       1.8E-02  OK|
 | P-Mass               | 0.82 | 8.3E-04 | 5.2E-02 | 13.6  3.8E-02  OK|
 +--------------------------------------------------------------------+
 |                     ****** Notice ******                           |
 |  A wall has been placed at portion(s) of an INLET                  |
 |  boundary condition (at  15.6% of the faces,   2.2% of the area)   |
 |  to prevent fluid from flowing out of the domain.                  |
 |  The boundary condition name is: IGV Inlet.                        |
 |  The fluid name is: Air Ideal Gas.                                 |
 |  If this situation persists, consider switching                    |
 |  to an Opening type boundary condition instead.                    |
 +--------------------------------------------------------------------+
 +----------------------+------+---------+---------+------------------+
 | H-Energy             | 0.94 | 8.9E-03 | 3.2E-01 |  5.9  9.7E-02  OK|
 +----------------------+------+---------+---------+------------------+
 | K-TurbKE             | 0.84 | 1.0E-02 | 4.4E-01 |  5.9  2.9E-03  OK|
 | E-Diss.K             | 0.79 | 1.2E-02 | 6.8E-01 |  7.4  1.1E-04  OK|
 +----------------------+------+---------+---------+------------------+

 ======================================================================
 OUTER LOOP ITERATION =   12                    CPU SECONDS = 4.843E+01
 ----------------------------------------------------------------------
 |       Equation       | Rate | RMS Res | Max Res |  Linear Solution |
 +----------------------+------+---------+---------+------------------+
 | U-Mom                | 0.95 | 4.5E-03 | 2.3E-01 |       4.3E-02  OK|
 | V-Mom                | 1.07 | 1.1E-03 | 3.0E-02 |       5.4E-02  OK|
 | W-Mom                | 0.97 | 3.3E-03 | 1.1E-01 |       4.0E-02  OK|
 | P-Mass               | 0.78 | 6.5E-04 | 2.5E-02 |  9.4  8.8E-02  OK|
 +--------------------------------------------------------------------+
 |                     ****** Notice ******                           |
 |  A wall has been placed at portion(s) of an INLET                  |
 |  boundary condition (at  15.6% of the faces,   2.2% of the area)   |
 |  to prevent fluid from flowing out of the domain.                  |
 |  The boundary condition name is: IGV Inlet.                        |
 |  The fluid name is: Air Ideal Gas.                                 |
 |  If this situation persists, consider switching                    |
 |  to an Opening type boundary condition instead.                    |
 +--------------------------------------------------------------------+
 +----------------------+------+---------+---------+------------------+
 | H-Energy             | 0.87 | 7.7E-03 | 2.7E-01 | 10.7  9.5E-03  OK|
 +----------------------+------+---------+---------+------------------+
 | K-TurbKE             | 1.34 | 1.4E-02 | 5.9E-01 |  5.8  4.7E-03  OK|
 | E-Diss.K             | 1.02 | 1.2E-02 | 5.8E-01 |  7.4  1.8E-04  OK|
 +----------------------+------+---------+---------+------------------+

 ======================================================================
 OUTER LOOP ITERATION =   13                    CPU SECONDS = 5.246E+01
 ----------------------------------------------------------------------
 |       Equation       | Rate | RMS Res | Max Res |  Linear Solution |
 +----------------------+------+---------+---------+------------------+
 | U-Mom                | 0.78 | 3.5E-03 | 1.2E-01 |       4.4E-02  OK|
 | V-Mom                | 0.96 | 1.0E-03 | 2.7E-02 |       4.9E-02  OK|
 | W-Mom                | 0.88 | 2.9E-03 | 9.3E-02 |       4.2E-02  OK|
 | P-Mass               | 0.82 | 5.3E-04 | 2.0E-02 |  9.4  8.2E-02  OK|
 +--------------------------------------------------------------------+
 |                     ****** Notice ******                           |
 |  A wall has been placed at portion(s) of an INLET                  |
 |  boundary condition (at  15.6% of the faces,   2.2% of the area)   |
 |  to prevent fluid from flowing out of the domain.                  |
 |  The boundary condition name is: IGV Inlet.                        |
 |  The fluid name is: Air Ideal Gas.                                 |
 |  If this situation persists, consider switching                    |
 |  to an Opening type boundary condition instead.                    |
 +--------------------------------------------------------------------+
 +----------------------+------+---------+---------+------------------+
 | H-Energy             | 0.86 | 6.7E-03 | 2.7E-01 | 10.7  1.1E-02  OK|
 +----------------------+------+---------+---------+------------------+
 | K-TurbKE             | 0.69 | 9.4E-03 | 5.5E-01 |  5.9  9.8E-03  OK|
 | E-Diss.K             | 0.89 | 1.1E-02 | 5.7E-01 |  7.4  1.4E-03  OK|
 +----------------------+------+---------+---------+------------------+

 ======================================================================
 OUTER LOOP ITERATION =   14                    CPU SECONDS = 5.649E+01
 ----------------------------------------------------------------------
 |       Equation       | Rate | RMS Res | Max Res |  Linear Solution |
 +----------------------+------+---------+---------+------------------+
 | U-Mom                | 0.88 | 3.1E-03 | 1.0E-01 |       5.0E-02  OK|
 | V-Mom                | 0.89 | 9.2E-04 | 2.4E-02 |       4.8E-02  OK|
 | W-Mom                | 0.92 | 2.7E-03 | 9.9E-02 |       4.6E-02  OK|
 | P-Mass               | 0.88 | 4.7E-04 | 1.9E-02 |  9.4  7.6E-02  OK|
 +--------------------------------------------------------------------+
 |                     ****** Notice ******                           |
 |  A wall has been placed at portion(s) of an INLET                  |
 |  boundary condition (at  14.3% of the faces,   1.9% of the area)   |
 |  to prevent fluid from flowing out of the domain.                  |
 |  The boundary condition name is: IGV Inlet.                        |
 |  The fluid name is: Air Ideal Gas.                                 |
 |  If this situation persists, consider switching                    |
 |  to an Opening type boundary condition instead.                    |
 +--------------------------------------------------------------------+
 +----------------------+------+---------+---------+------------------+
 | H-Energy             | 0.98 | 6.5E-03 | 4.6E-01 | 10.7  1.0E-02  OK|
 +----------------------+------+---------+---------+------------------+
 | K-TurbKE             | 0.68 | 6.4E-03 | 5.0E-01 |  5.9  6.8E-03  OK|
 | E-Diss.K             | 0.92 | 1.0E-02 | 6.6E-01 |  7.4  4.2E-04  OK|
 +----------------------+------+---------+---------+------------------+

 ======================================================================
 OUTER LOOP ITERATION =   15                    CPU SECONDS = 6.050E+01
 ----------------------------------------------------------------------
 |       Equation       | Rate | RMS Res | Max Res |  Linear Solution |
 +----------------------+------+---------+---------+------------------+
 | U-Mom                | 1.08 | 3.3E-03 | 2.8E-01 |       5.5E-02  OK|
 | V-Mom                | 0.82 | 7.5E-04 | 2.3E-02 |       5.1E-02  OK|
 | W-Mom                | 0.87 | 2.4E-03 | 1.1E-01 |       4.9E-02  OK|
 | P-Mass               | 0.88 | 4.1E-04 | 1.9E-02 |  9.4  7.1E-02  OK|
 +--------------------------------------------------------------------+
 |                     ****** Notice ******                           |
 |  A wall has been placed at portion(s) of an INLET                  |
 |  boundary condition (at  13.2% of the faces,   1.7% of the area)   |
 |  to prevent fluid from flowing out of the domain.                  |
 |  The boundary condition name is: IGV Inlet.                        |
 |  The fluid name is: Air Ideal Gas.                                 |
 |  If this situation persists, consider switching                    |
 |  to an Opening type boundary condition instead.                    |
 +--------------------------------------------------------------------+
 +----------------------+------+---------+---------+------------------+
 | H-Energy             | 1.06 | 6.9E-03 | 4.5E-01 | 10.7  8.9E-03  OK|
 +----------------------+------+---------+---------+------------------+
 | K-TurbKE             | 1.01 | 6.5E-03 | 4.1E-01 |  5.9  5.5E-03  OK|
 | E-Diss.K             | 0.72 | 7.3E-03 | 6.1E-01 |  7.4  2.2E-04  OK|
 +----------------------+------+---------+---------+------------------+

 ======================================================================
 |                        Timescale Information                       |
 ----------------------------------------------------------------------
 |       Equation       |         Type          |      Timescale      |
 +----------------------+-----------------------+---------------------+
 | U-Mom-IGV            | Auto Timescale        |     5.90542E-05     |
 | V-Mom-IGV            | Auto Timescale        |     5.90542E-05     |
 | W-Mom-IGV            | Auto Timescale        |     5.90542E-05     |
 | P-Mass-IGV           | Auto Timescale        |     5.90542E-05     |
 | U-Mom-R1             | Auto Timescale        |     5.90542E-05     |
 | V-Mom-R1             | Auto Timescale        |     5.90542E-05     |
 | W-Mom-R1             | Auto Timescale        |     5.90542E-05     |
 | P-Mass-R1            | Auto Timescale        |     5.90542E-05     |
 | U-Mom-S1             | Auto Timescale        |     5.90542E-05     |
 | V-Mom-S1             | Auto Timescale        |     5.90542E-05     |
 | W-Mom-S1             | Auto Timescale        |     5.90542E-05     |
 | P-Mass-S1            | Auto Timescale        |     5.90542E-05     |
 +----------------------+-----------------------+---------------------+
 | H-Energy-IGV         | Auto Timescale        |     5.90542E-05     |
 | H-Energy-R1          | Auto Timescale        |     5.90542E-05     |
 | H-Energy-S1          | Auto Timescale        |     5.90542E-05     |
 +----------------------+-----------------------+---------------------+
 | K-TurbKE-IGV         | Auto Timescale        |     5.90542E-05     |
 | E-Diss.K-IGV         | Auto Timescale        |     5.90542E-05     |
 | K-TurbKE-R1          | Auto Timescale        |     5.90542E-05     |
 | E-Diss.K-R1          | Auto Timescale        |     5.90542E-05     |
 | K-TurbKE-S1          | Auto Timescale        |     5.90542E-05     |
 | E-Diss.K-S1          | Auto Timescale        |     5.90542E-05     |
 +----------------------+-----------------------+---------------------+

 ======================================================================
 OUTER LOOP ITERATION =   16                    CPU SECONDS = 6.455E+01
 ----------------------------------------------------------------------
 |       Equation       | Rate | RMS Res | Max Res |  Linear Solution |
 +----------------------+------+---------+---------+------------------+
 | U-Mom                | 0.83 | 2.7E-03 | 1.7E-01 |       6.0E-02  OK|
 | V-Mom                | 0.81 | 6.1E-04 | 3.4E-02 |       5.9E-02  OK|
 | W-Mom                | 0.83 | 2.0E-03 | 8.1E-02 |       5.0E-02  OK|
 | P-Mass               | 0.78 | 3.2E-04 | 1.6E-02 |  9.4  7.3E-02  OK|
 +--------------------------------------------------------------------+
 |                     ****** Notice ******                           |
 |  A wall has been placed at portion(s) of an INLET                  |
 |  boundary condition (at  11.9% of the faces,   1.4% of the area)   |
 |  to prevent fluid from flowing out of the domain.                  |
 |  The boundary condition name is: IGV Inlet.                        |
 |  The fluid name is: Air Ideal Gas.                                 |
 |  If this situation persists, consider switching                    |
 |  to an Opening type boundary condition instead.                    |
 +--------------------------------------------------------------------+
 +----------------------+------+---------+---------+------------------+
 | H-Energy             | 0.94 | 6.5E-03 | 4.9E-01 | 10.7  8.1E-03  OK|
 +----------------------+------+---------+---------+------------------+
 | K-TurbKE             | 0.89 | 5.8E-03 | 4.0E-01 |  5.8  7.6E-03  OK|
 | E-Diss.K             | 0.86 | 6.3E-03 | 4.0E-01 |  7.4  2.5E-04  OK|
 +----------------------+------+---------+---------+------------------+

 ======================================================================
 OUTER LOOP ITERATION =   17                    CPU SECONDS = 6.861E+01
 ----------------------------------------------------------------------
 |       Equation       | Rate | RMS Res | Max Res |  Linear Solution |
 +----------------------+------+---------+---------+------------------+
 | U-Mom                | 0.83 | 2.3E-03 | 7.3E-02 |       5.9E-02  OK|
 | V-Mom                | 0.98 | 6.0E-04 | 2.5E-02 |       6.4E-02  OK|
 | W-Mom                | 0.81 | 1.6E-03 | 6.9E-02 |       5.2E-02  OK|
 | P-Mass               | 0.72 | 2.3E-04 | 8.5E-03 |  9.4  7.7E-02  OK|
 +--------------------------------------------------------------------+
 |                     ****** Notice ******                           |
 |  A wall has been placed at portion(s) of an INLET                  |
 |  boundary condition (at  10.8% of the faces,   1.2% of the area)   |
 |  to prevent fluid from flowing out of the domain.                  |
 |  The boundary condition name is: IGV Inlet.                        |
 |  The fluid name is: Air Ideal Gas.                                 |
 |  If this situation persists, consider switching                    |
 |  to an Opening type boundary condition instead.                    |
 +--------------------------------------------------------------------+
 +----------------------+------+---------+---------+------------------+
 | H-Energy             | 0.82 | 5.3E-03 | 4.1E-01 | 10.7  8.3E-03  OK|
 +----------------------+------+---------+---------+------------------+
 | K-TurbKE             | 0.85 | 4.9E-03 | 3.7E-01 |  5.8  1.5E-02  OK|
 | E-Diss.K             | 0.94 | 6.0E-03 | 4.0E-01 |  7.4  4.2E-04  OK|
 +----------------------+------+---------+---------+------------------+

 ======================================================================
 OUTER LOOP ITERATION =   18                    CPU SECONDS = 7.262E+01
 ----------------------------------------------------------------------
 |       Equation       | Rate | RMS Res | Max Res |  Linear Solution |
 +----------------------+------+---------+---------+------------------+
 | U-Mom                | 0.91 | 2.1E-03 | 6.3E-02 |       5.2E-02  OK|
 | V-Mom                | 1.18 | 7.0E-04 | 2.2E-02 |       5.9E-02  OK|
 | W-Mom                | 0.90 | 1.4E-03 | 3.8E-02 |       4.9E-02  OK|
 | P-Mass               | 0.84 | 2.0E-04 | 6.5E-03 |  9.4  7.9E-02  OK|
 +--------------------------------------------------------------------+
 |                     ****** Notice ******                           |
 |  A wall has been placed at portion(s) of an INLET                  |
 |  boundary condition (at  10.8% of the faces,   1.2% of the area)   |
 |  to prevent fluid from flowing out of the domain.                  |
 |  The boundary condition name is: IGV Inlet.                        |
 |  The fluid name is: Air Ideal Gas.                                 |
 |  If this situation persists, consider switching                    |
 |  to an Opening type boundary condition instead.                    |
 +--------------------------------------------------------------------+
 +----------------------+------+---------+---------+------------------+
 | H-Energy             | 0.73 | 3.8E-03 | 3.2E-01 | 10.7  8.5E-03  OK|
 +----------------------+------+---------+---------+------------------+
 | K-TurbKE             | 0.89 | 4.4E-03 | 2.8E-01 |  5.8  2.6E-02  OK|
 | E-Diss.K             | 0.95 | 5.7E-03 | 2.5E-01 |  7.4  8.8E-04  OK|
 +----------------------+------+---------+---------+------------------+

 ======================================================================
 OUTER LOOP ITERATION =   19                    CPU SECONDS = 7.665E+01
 ----------------------------------------------------------------------
 |       Equation       | Rate | RMS Res | Max Res |  Linear Solution |
 +----------------------+------+---------+---------+------------------+
 | U-Mom                | 0.90 | 1.9E-03 | 4.6E-02 |       4.5E-02  OK|
 | V-Mom                | 1.05 | 7.4E-04 | 2.0E-02 |       5.3E-02  OK|
 | W-Mom                | 0.95 | 1.3E-03 | 3.9E-02 |       4.5E-02  OK|
 | P-Mass               | 1.03 | 2.0E-04 | 7.9E-03 |  9.4  7.7E-02  OK|
 +--------------------------------------------------------------------+
 |                     ****** Notice ******                           |
 |  A wall has been placed at portion(s) of an INLET                  |
 |  boundary condition (at  10.8% of the faces,   1.2% of the area)   |
 |  to prevent fluid from flowing out of the domain.                  |
 |  The boundary condition name is: IGV Inlet.                        |
 |  The fluid name is: Air Ideal Gas.                                 |
 |  If this situation persists, consider switching                    |
 |  to an Opening type boundary condition instead.                    |
 +--------------------------------------------------------------------+
 +----------------------+------+---------+---------+------------------+
 | H-Energy             | 0.74 | 2.8E-03 | 1.7E-01 | 10.7  8.5E-03  OK|
 +----------------------+------+---------+---------+------------------+
 | K-TurbKE             | 0.99 | 4.3E-03 | 2.3E-01 |  5.8  3.2E-02  OK|
 | E-Diss.K             | 1.02 | 5.8E-03 | 1.8E-01 |  7.4  1.4E-03  OK|
 +----------------------+------+---------+---------+------------------+

 ======================================================================
 OUTER LOOP ITERATION =   20                    CPU SECONDS = 8.066E+01
 ----------------------------------------------------------------------
 |       Equation       | Rate | RMS Res | Max Res |  Linear Solution |
 +----------------------+------+---------+---------+------------------+
 | U-Mom                | 0.88 | 1.6E-03 | 4.0E-02 |       4.1E-02  OK|
 | V-Mom                | 0.92 | 6.8E-04 | 1.4E-02 |       4.7E-02  OK|
 | W-Mom                | 0.95 | 1.3E-03 | 3.8E-02 |       4.2E-02  OK|
 | P-Mass               | 1.02 | 2.1E-04 | 7.4E-03 |  9.4  7.5E-02  OK|
 +--------------------------------------------------------------------+
 |                     ****** Notice ******                           |
 |  A wall has been placed at portion(s) of an INLET                  |
[...]
 | V-Mom-S1             |       1.3471E+03      |       -0.0001       |
 | W-Mom-S1             |       1.3471E+03      |        0.0000       |
 | P-Mass-S1            |       1.2208E+00      |       -0.0001       |
 +----------------------+-----------------------+---------------------+
 | H-Energy-IGV         |       3.1859E+05      |        0.0001       |
 | H-Energy-R1          |       3.1859E+05      |       -0.0000       |
 | H-Energy-S1          |       3.1859E+05      |       -0.0005       |
 +----------------------+-----------------------+---------------------+

 ======================================================================
                     Wall Force and Moment Summary
 ======================================================================
                                                                          
 Notes:
 1. Pressure integrals exclude the reference pressure.  To include
    it, set the expert parameter 'include pref in forces = t'.
 2. These quantities are evaluated in a reference frame fixed to
    the initial domain orientation and are not rotated if the orientation
    changes (e.g. transient run or specified rotational offset).


 +--------------------------------------------------------------------+
 |                      Pressure Force On Walls                       |
 +--------------------------------------------------------------------+
                                    X-Comp.      Y-Comp.      Z-Comp.

 Domain Group: IGV

 IGV Blade                        1.5197E+01  -1.2718E+00   4.5166E-03
 IGV Hub                          3.0422E+02  -2.8807E+02  -3.1860E-03
 IGV Shroud                      -1.0189E-03   3.6032E+02   4.6134E-02
 R1 Blade                        -5.0369E+02  -3.8352E+01   2.4110E+02
 R1 Hub                           4.2410E+02  -7.1532E+02  -1.1012E+02
 R1 Shroud                        1.9537E-03   9.5426E+02   1.0548E+02
 S1 Blade                        -6.8511E+01   1.3012E+01  -1.7634E+02
 S1 Hub                           1.8198E+02  -8.8242E+02   2.4421E+01
 S1 Shroud                        2.0186E-03   9.9988E+02  -2.2577E+01
                                  -----------  -----------  -----------
 Domain Group Totals :            3.5330E+02   4.0203E+02   6.2014E+01


 +--------------------------------------------------------------------+
 |                       Viscous Force On Walls                       |
 +--------------------------------------------------------------------+
                                    X-Comp.      Y-Comp.      Z-Comp.

 Domain Group: IGV

 IGV Blade                        4.6533E-01   1.0808E-01   3.6827E-05
 IGV Hub                          3.4549E-02   3.3468E-02  -9.7289E-06
 IGV Shroud                       1.8137E-01   3.0072E-05   4.0726E-05
 R1 Blade                         2.2771E+00   4.5579E-01   4.6317E+00
 R1 Hub                           4.6379E-01   1.6356E-01   7.9612E-01
 R1 Shroud                        4.5079E-01   8.8020E-02  -6.9778E-01
 S1 Blade                         6.5053E-01   2.9286E-02  -3.4809E-01
 S1 Hub                           7.0671E-01   1.4275E-01  -2.4300E-01
 S1 Shroud                        4.4003E-01  -3.3526E-03  -1.2695E-01
                                  -----------  -----------  -----------
 Domain Group Totals :            5.6702E+00   1.0176E+00   4.0120E+00


 +--------------------------------------------------------------------+
 |                      Pressure Moment On Walls                      |
 +--------------------------------------------------------------------+
                                    X-Comp.      Y-Comp.      Z-Comp.

 Domain Group: IGV

 IGV Blade                        1.5564E-03  -7.6294E-05  -3.8020E+00
 IGV Hub                          1.9970E-06   8.2797E-04  -7.4589E+01
 IGV Shroud                       1.6327E-06  -6.7605E-04   2.2843E+00
 R1 Blade                         7.4786E+01  -1.7812E+01   1.4931E+02
 R1 Hub                          -4.9631E-04   2.2865E+01  -1.4780E+02
 R1 Shroud                       -5.9428E-04  -5.3540E+00   4.5081E+01
 S1 Blade                        -5.3676E+01   1.4582E+01   2.1956E+01
 S1 Hub                          -9.6790E-04  -3.5965E+00  -1.3072E+02
 S1 Shroud                        6.4870E-04   2.0473E+00   8.8703E+01
                                  -----------  -----------  -----------
 Domain Group Totals :            2.1110E+01   1.2732E+01  -4.9574E+01


 +--------------------------------------------------------------------+
 |                       Viscous Moment On Walls                      |
 +--------------------------------------------------------------------+
                                    X-Comp.      Y-Comp.      Z-Comp.

 Domain Group: IGV

 IGV Blade                        9.1786E-06   1.3963E-06  -1.3551E-01
 IGV Hub                         -2.5382E-06   2.6154E-07  -8.1018E-03
 IGV Shroud                       1.3245E-05   6.5102E-06  -5.8943E-02
 R1 Blade                         1.3518E+00  -1.1831E-01  -6.5551E-01
 R1 Hub                           2.0583E-01  -1.4504E-02  -1.1700E-01
 R1 Shroud                       -2.2907E-01   4.9925E-02  -1.4090E-01
 S1 Blade                        -1.0572E-01   2.1064E-02  -1.9516E-01
 S1 Hub                          -6.7884E-02   1.1245E-02  -1.9135E-01
 S1 Shroud                       -4.1311E-02   4.8812E-03  -1.4311E-01
                                  -----------  -----------  -----------
 Domain Group Totals :            1.1136E+00  -4.5690E-02  -1.6456E+00


 +--------------------------------------------------------------------+
 |                   Locations of Maximum Residuals                   |
 +--------------------------------------------------------------------+
 |       Equation       |      Domain Name      |     Node Number     |
 +--------------------------------------------------------------------+
 | U-Mom                | R1                    |          26078      |
 | V-Mom                | IGV                   |           1464      |
 | W-Mom                | IGV                   |           5463      |
 | P-Mass               | S1                    |           1404      |
 +----------------------+-----------------------+---------------------+
 | H-Energy             | IGV                   |          17796      |
 +----------------------+-----------------------+---------------------+
 | K-TurbKE             | R1                    |          25567      |
 | E-Diss.K             | R1                    |          26125      |
 +----------------------+-----------------------+---------------------+

 ======================================================================
 |                     False Transient Information                    |
 +--------------------------------------------------------------------+
 |       Equation       |         Type          | Elapsed Pseudo-Time |
 +--------------------------------------------------------------------+
 | U-Mom-IGV            | Auto Timescale        |     3.93297E-02     |
 | V-Mom-IGV            | Auto Timescale        |     3.93297E-02     |
 | W-Mom-IGV            | Auto Timescale        |     3.93297E-02     |
 | P-Mass-IGV           | Auto Timescale        |     3.93297E-02     |
 | U-Mom-R1             | Auto Timescale        |     3.93297E-02     |
 | V-Mom-R1             | Auto Timescale        |     3.93297E-02     |
 | W-Mom-R1             | Auto Timescale        |     3.93297E-02     |
 | P-Mass-R1            | Auto Timescale        |     3.93297E-02     |
 | U-Mom-S1             | Auto Timescale        |     3.93297E-02     |
 | V-Mom-S1             | Auto Timescale        |     3.93297E-02     |
 | W-Mom-S1             | Auto Timescale        |     3.93297E-02     |
 | P-Mass-S1            | Auto Timescale        |     3.93297E-02     |
 +----------------------+-----------------------+---------------------+
 | H-Energy-IGV         | Auto Timescale        |     3.93297E-02     |
 | H-Energy-R1          | Auto Timescale        |     3.93297E-02     |
 | H-Energy-S1          | Auto Timescale        |     3.93297E-02     |
 +----------------------+-----------------------+---------------------+
 | K-TurbKE-IGV         | Auto Timescale        |     3.93297E-02     |
 | E-Diss.K-IGV         | Auto Timescale        |     3.93297E-02     |
 | K-TurbKE-R1          | Auto Timescale        |     3.93297E-02     |
 | E-Diss.K-R1          | Auto Timescale        |     3.93297E-02     |
 | K-TurbKE-S1          | Auto Timescale        |     3.93297E-02     |
 | E-Diss.K-S1          | Auto Timescale        |     3.93297E-02     |
 +----------------------+-----------------------+---------------------+

 +--------------------------------------------------------------------+
 |                     Average Scale Information                      |
 +--------------------------------------------------------------------+

 Domain Name : IGV
     Global Length                                         = 4.2583E-02
     Minimum Extent                                        = 2.9262E-02
     Maximum Extent                                        = 1.0612E-01
     Density                                               = 2.4598E+00
     Dynamic Viscosity                                     = 1.8310E-05
     Velocity                                              = 1.4399E+02
     Advection Time                                        = 2.9573E-04
     Reynolds Number                                       = 8.2373E+05
     Speed of Sound                                        = 4.5146E+02
     Mach Number                                           = 3.1895E-01
     Thermal Conductivity                                  = 2.6100E-02
     Specific Heat Capacity at Constant Pressure           = 1.0044E+03
     Specific Heat Capacity at Constant Volume             = 7.1730E+02
     Specific Heat Ratio                                   = 1.4003E+00
     Prandtl Number                                        = 7.0462E-01
     Temperature Range                                     = 2.0937E+01

 Domain Name : R1
     Global Length                                         = 4.5321E-02
     Minimum Extent                                        = 4.0768E-02
     Maximum Extent                                        = 8.7461E-02
     Density                                               = 2.9345E+00
     Dynamic Viscosity                                     = 1.8310E-05
     Velocity                                              = 3.6877E+02
     Advection Time                                        = 1.2290E-04
     Reynolds Number                                       = 2.6785E+06
     Speed of Sound                                        = 4.8292E+02
     Mach Number                                           = 7.6362E-01
     Thermal Conductivity                                  = 2.6100E-02
     Specific Heat Capacity at Constant Pressure           = 1.0044E+03
     Specific Heat Capacity at Constant Volume             = 7.1730E+02
     Specific Heat Ratio                                   = 1.4003E+00
     Prandtl Number                                        = 7.0462E-01
     Temperature Range                                     = 4.0769E+02

 Domain Name : S1
     Global Length                                         = 3.9620E-02
     Minimum Extent                                        = 4.3581E-02
     Maximum Extent                                        = 4.5385E-02
     Density                                               = 3.2302E+00
     Dynamic Viscosity                                     = 1.8310E-05
     Velocity                                              = 2.4327E+02
     Advection Time                                        = 1.6287E-04
     Reynolds Number                                       = 1.7003E+06
     Speed of Sound                                        = 4.9049E+02
     Mach Number                                           = 4.9596E-01
     Thermal Conductivity                                  = 2.6100E-02
     Specific Heat Capacity at Constant Pressure           = 1.0044E+03
     Specific Heat Capacity at Constant Volume             = 7.1730E+02
     Specific Heat Ratio                                   = 1.4003E+00
     Prandtl Number                                        = 7.0462E-01
     Temperature Range                                     = 1.1889E+02

 +--------------------------------------------------------------------+
 |                     Variable Range Information                     |
 +--------------------------------------------------------------------+

 Domain Name : IGV
 +--------------------------------------------------------------------+
 |      Variable Name                         |    min    |    max    |
 +--------------------------------------------------------------------+
 | Density                                    |  2.27E+00 |  2.60E+00 |
 | Specific Heat Capacity at Constant Pressure|  1.00E+03 |  1.00E+03 |
 | Dynamic Viscosity                          |  1.83E-05 |  1.83E-05 |
 | Thermal Conductivity                       |  2.61E-02 |  2.61E-02 |
 | Isothermal Compressibility                 |  2.59E-06 |  3.00E-06 |
 | Static Entropy                             |  1.67E+02 |  2.03E+02 |
 | Velocity u                                 |  4.20E-01 |  2.05E+02 |
 | Velocity v                                 | -7.98E+00 |  9.40E+01 |
 | Velocity w                                 | -6.10E+01 |  6.06E+01 |
 | Pressure                                   |  3.33E+05 |  3.86E+05 |
 | Turbulence Kinetic Energy                  |  6.62E-02 |  3.56E+02 |
 | Turbulence Eddy Dissipation                |  2.17E+01 |  4.79E+07 |
 | Eddy Viscosity                             |  1.43E-05 |  1.19E-03 |
 | Temperature                                |  4.96E+02 |  5.17E+02 |
 | Static Enthalpy                            |  1.99E+05 |  2.20E+05 |
 | Total Enthalpy                             |  2.19E+05 |  2.20E+05 |
 +--------------------------------------------------------------------+

 Domain Name : R1
 +--------------------------------------------------------------------+
 |      Variable Name                         |    min    |    max    |
 +--------------------------------------------------------------------+
 | Density                                    |  6.36E-01 |  4.72E+00 |
 | Specific Heat Capacity at Constant Pressure|  1.00E+03 |  1.00E+03 |
 | Dynamic Viscosity                          |  1.83E-05 |  1.83E-05 |
 | Thermal Conductivity                       |  2.61E-02 |  2.61E-02 |
 | Isothermal Compressibility                 |  1.08E-06 |  9.39E-06 |
 | Static Entropy                             |  1.61E+02 |  7.02E+02 |
 | Velocity u                                 | -2.28E+02 |  3.93E+02 |
 | Velocity v                                 | -1.72E+02 |  1.22E+02 |
 | Velocity w                                 | -1.25E+02 |  7.28E+02 |
 | Pressure                                   |  1.06E+05 |  9.29E+05 |
 | Turbulence Kinetic Energy                  |  7.51E-01 |  8.03E+03 |
 | Turbulence Eddy Dissipation                |  3.33E+03 |  1.55E+10 |
 | Eddy Viscosity                             |  4.16E-06 |  1.99E-02 |
 | Temperature                                |  3.69E+02 |  7.77E+02 |
 | Static Enthalpy                            |  7.14E+04 |  4.81E+05 |
 | Total Enthalpy                             |  3.15E+05 |  4.98E+05 |
 +--------------------------------------------------------------------+

 Domain Name : S1
 +--------------------------------------------------------------------+
 |      Variable Name                         |    min    |    max    |
 +--------------------------------------------------------------------+
 | Density                                    |  2.26E+00 |  3.91E+00 |
 | Specific Heat Capacity at Constant Pressure|  1.00E+03 |  1.00E+03 |
 | Dynamic Viscosity                          |  1.83E-05 |  1.83E-05 |
 | Thermal Conductivity                       |  2.61E-02 |  2.61E-02 |
 | Isothermal Compressibility                 |  1.41E-06 |  2.74E-06 |
 | Static Entropy                             |  1.79E+02 |  3.19E+02 |
 | Velocity u                                 | -1.58E+02 |  3.60E+02 |
 | Velocity v                                 | -9.02E+01 |  1.05E+02 |
 | Velocity w                                 | -3.21E+02 |  8.34E+01 |
 | Pressure                                   |  3.64E+05 |  7.08E+05 |
 | Turbulence Kinetic Energy                  |  1.35E+01 |  6.82E+03 |
 | Turbulence Eddy Dissipation                |  5.83E+04 |  6.98E+08 |
 | Eddy Viscosity                             |  1.19E-04 |  1.60E-01 |
 | Temperature                                |  5.27E+02 |  6.46E+02 |
 | Static Enthalpy                            |  2.30E+05 |  3.49E+05 |
 | Total Enthalpy                             |  3.18E+05 |  3.50E+05 |
 +--------------------------------------------------------------------+


 +--------------------------------------------------------------------+
 |            Host Memory Information (Mbytes): Solver                |
 +--------------------------------------------------------------------+
 |          Host           |     System     |      Peak      |   %    |
 +-------------------------+----------------+----------------+--------+
 | HB-105-21               |     32698.03   |       324.00   |   0.99 |
 +-------------------------+----------------+----------------+--------+

 +--------------------------------------------------------------------+
 |                  CPU Time Requirements of Solver                   |
 +--------------------------------------------------------------------+
 
 Subsystem Name                  Discretization       Linear Solution
                                (secs.   %total)     (secs.   %total) 
 ----------------------------------------------------------------------
 Momentum and Mass              1.03E+03  39.1 %     2.71E+02  10.3 %
 Heat Transfer                  4.39E+02  16.6 %     1.14E+02   4.3 %
 TurbKE and Diss.K              3.01E+02  11.4 %     2.13E+02   8.1 %
                                -------- -------     --------  ------
 Subsystem Summary              1.77E+03  67.1 %     5.98E+02  22.6 %

 GGI Intersection               7.90E-02    0.0 %
 File Reading                   1.27E+00    0.0 %
 Search Calculations            6.47E-02    0.0 %
 Variable Updates               2.39E+02    9.0 %
 File Writing                   4.25E+00    0.2 %
 Miscellaneous                  2.57E+01    1.0 %
                                --------
 Total                          2.64E+03

 +--------------------------------------------------------------------+
 |                   Job Information at End of Run                    |
 +--------------------------------------------------------------------+

 Host computer:  HB-105-21 (PID:19644)

 Job finished:   Tue Dec 12 21:34:09 2023

 Total wall clock time: 2.642E+03 seconds
             or: (          0:         0:        44:     1.958 )
                 (       Days:     Hours:   Minutes:   Seconds )

End of solution stage.

 +--------------------------------------------------------------------+
 | The results from this run of the ANSYS CFX Solver have been        |
 | written to                                                         |
 | C:/Users/alebostr/Desktop/DT3_files/cfd/cfdrun_pending/dp0_CFX_So- |
 | lution/CFX_007.res                                                 |
 +--------------------------------------------------------------------+


 +--------------------------------------------------------------------+
 | For CFX runs launched from Workbench, the final locations of       |
 | directories and files generated may differ from those shown.       |
 +--------------------------------------------------------------------+


This run of the ANSYS CFX Solver has finished.
